parallel/peak_load/80pc/TNB_DUMA_VLN.Txt

SYMMETRICAL COMPONENT VOLTAGES BY BUS (for 3-phase buses)

Bus               Mag:   V1 (kV)    p.u.     V2 (kV)   %V2/V1    V0 (kV)    %V0/V1

ppu_duma_33kv        18.89     0.9914  3.444E-009  1.823E-008 1.239E-009 6.561E-009
ppu_duma_11kv        6.027     0.9489  1.249E-008  2.072E-007 1.466E-007 2.432E-006
rpplngi2             6.125     0.9645  1.238E-008  2.021E-007 1.496E-007 2.443E-006
pdtjlnmasjid           6.2     0.9762  1.23E-008  1.984E-007 1.52E-007 2.451E-006
bella                 6.25     0.9841  1.225E-008  1.96E-007 1.535E-007 2.457E-006
pstpdgn              6.275     0.9881  1.223E-008  1.949E-007 1.543E-007 2.459E-006
pamdra               6.039     0.9509  1.247E-008  2.065E-007 1.47E-007 2.434E-006
duma4                 6.08     0.9573  1.241E-008  2.042E-007 1.657E-007 2.725E-006
plsdra               6.168     0.9712  1.231E-008  1.996E-007 2.002E-007 3.246E-006
ssu_uptwres_ir1       6.18     0.9731  1.228E-008  1.988E-007 2.007E-007 3.248E-006
atria_1               6.18      0.973  1.233E-008  1.995E-007 1.511E-007 2.445E-006
hawker               6.205      0.977  1.22E-008  1.967E-007 1.529E-007 2.465E-006
prmte                6.097       0.96  1.231E-008  2.019E-007 1.81E-007 2.969E-006
prmta                 6.11     0.9621  1.228E-008  2.01E-007 1.815E-007 2.97E-006
pmontb               6.123     0.9642  1.227E-008  2.004E-007 1.863E-007 3.043E-006
duma7                6.066     0.9552  1.537E-008  2.533E-007 1.513E-007 2.494E-006
haus                 6.154      0.969  2.049E-008  3.329E-007 1.073E-006 1.743E-005
duma6                6.395      1.007  4.526E-008  7.078E-007 4.734E-006 7.403E-005
duma13               6.617      1.042  7.41E-008  1.12E-006 8.71E-006 0.0001316
ssu_duma5_im2        6.644      1.046  7.879E-008  1.186E-006 8.758E-006 0.0001318
plngi_b               6.09      0.959  1.243E-008  2.04E-007 1.483E-007 2.435E-006
plngi_d              6.125     0.9644  1.24E-008  2.024E-007 1.492E-007 2.436E-006
pdtlitrak            6.297     0.9915  1.205E-008  1.914E-007 1.579E-007 2.507E-006
duma12               6.408      1.009  1.186E-008  1.852E-007 1.626E-007 2.538E-006
tmngh4               6.516      1.026  1.172E-008  1.799E-007 2.138E-007 3.281E-006
ssu_tmegah3_ir1      6.559      1.033  1.166E-008  1.778E-007 2.349E-007 3.581E-006
tmngh2               6.576      1.036  1.163E-008  1.769E-007 2.439E-007 3.708E-006
sprk9                6.236      0.982  1.223E-008  1.961E-007 1.536E-007 2.463E-006
bomba                6.249      0.984  1.222E-008  1.956E-007 1.579E-007 2.527E-006
sprk8                6.282     0.9891  1.22E-008  1.942E-007 1.69E-007 2.691E-006
ssu_uptwres_im2      6.065      0.955  1.242E-008  2.048E-007 1.614E-007 2.66E-006
maybank              6.127     0.9648  1.235E-008  2.015E-007 1.633E-007 2.665E-006
duma8                6.139     0.9666  1.234E-008  2.01E-007 1.671E-007 2.721E-006
ssu_dsarcntr_ir1      6.06     0.9542  1.246E-008  2.055E-007 1.474E-007 2.433E-006
duma9                6.208     0.9775  1.231E-008  1.983E-007 1.522E-007 2.452E-006
duma1                6.283     0.9893  1.224E-008  1.948E-007 1.545E-007 2.459E-006
elite                 6.31     0.9935  1.221E-008  1.936E-007 1.553E-007 2.462E-006
duma10               6.171     0.9716  1.235E-008  2.002E-007 1.507E-007 2.442E-006
balaipolis           6.172     0.9719  1.235E-008  2.001E-007 1.507E-007 2.442E-006
ppu_duma_vcb1            0          0          0          0         0         0
